Version 4
SHEET 1 1044 760
WIRE 448 -368 352 -368
WIRE 352 -336 352 -368
WIRE 448 -336 448 -368
WIRE 224 -256 192 -256
WIRE 352 -256 224 -256
WIRE 656 -256 352 -256
WIRE 320 -32 256 -32
WIRE 432 -32 400 -32
WIRE 192 -16 192 -256
WIRE 192 -16 176 -16
WIRE 112 0 -160 0
WIRE 320 16 176 16
WIRE 432 16 432 -32
WIRE 528 16 432 16
WIRE 688 16 608 16
WIRE 112 32 64 32
WIRE 256 48 256 -32
WIRE 256 48 176 48
WIRE 656 128 656 -256
WIRE 656 128 544 128
WIRE 64 144 64 32
WIRE 256 144 256 128
WIRE 256 144 64 144
WIRE 480 144 464 144
WIRE 256 160 256 144
WIRE 864 160 544 160
WIRE 432 176 432 16
WIRE 480 176 432 176
WIRE 688 192 688 16
WIRE 688 192 544 192
WIRE -336 208 -448 208
WIRE -160 208 -160 80
WIRE -160 208 -336 208
WIRE 464 208 464 144
WIRE 464 208 432 208
WIRE 256 256 256 240
WIRE 256 256 64 256
WIRE -448 272 -448 208
WIRE 256 272 256 256
WIRE 224 384 224 -256
WIRE 224 384 176 384
WIRE 112 400 -48 400
WIRE 208 416 176 416
WIRE 64 432 64 256
WIRE 112 432 64 432
WIRE 256 448 256 352
WIRE 256 448 176 448
WIRE 352 448 256 448
WIRE 432 448 432 208
WIRE 576 448 432 448
WIRE 752 448 656 448
WIRE 752 480 752 448
WIRE -336 592 -336 208
WIRE -48 592 -48 400
WIRE -48 592 -336 592
WIRE 208 640 208 416
WIRE 320 640 320 16
WIRE 320 640 208 640
WIRE 400 640 320 640
WIRE 864 640 864 160
WIRE 864 640 400 640
FLAG 752 480 0
FLAG 400 720 0
FLAG 448 -336 0
FLAG -448 272 0
SYMBOL TL072 144 16 R0
SYMATTR InstName U1
SYMBOL TL072 144 416 R0
SYMATTR InstName U2
SYMBOL TL072 512 160 R0
SYMATTR InstName U3
SYMBOL res 240 32 R0
SYMATTR InstName R1
SYMATTR Value 100k
SYMBOL res 240 144 R0
SYMATTR InstName R2
SYMATTR Value 5k
SYMBOL res 240 256 R0
SYMATTR InstName R3
SYMATTR Value 100k
SYMBOL res 416 -48 R90
WINDOW 0 0 56 VBottom 2
WINDOW 3 32 56 VTop 2
SYMATTR InstName R4
SYMATTR Value 10k
SYMBOL res 448 432 R90
WINDOW 0 0 56 VBottom 2
WINDOW 3 32 56 VTop 2
SYMATTR InstName R5
SYMATTR Value 10k
SYMBOL res 672 432 R90
WINDOW 0 0 56 VBottom 2
WINDOW 3 32 56 VTop 2
SYMATTR InstName R6
SYMATTR Value 100k
SYMBOL res 624 0 R90
WINDOW 0 0 56 VBottom 2
WINDOW 3 32 56 VTop 2
SYMATTR InstName R
SYMATTR Value 100k
SYMBOL voltage 352 -240 R180
WINDOW 0 24 96 Left 2
WINDOW 3 24 16 Left 2
WINDOW 123 0 0 Left 0
WINDOW 39 0 0 Left 0
SYMATTR InstName V1
SYMATTR Value 9
SYMBOL voltage 400 624 R0
WINDOW 123 0 0 Left 0
WINDOW 39 0 0 Left 0
SYMATTR InstName V2
SYMATTR Value -9
SYMBOL voltage -160 -16 R0
WINDOW 123 24 124 Left 2
WINDOW 39 0 0 Left 0
SYMATTR Value2 AC 10m
SYMATTR InstName V3
SYMATTR Value SINE(0 5m 25 0 0)
TEXT -464 744 Left 2 ;.tran 1
TEXT -248 744 Left 2 !.ac oct 100 1 10000
